#======================================================================

# CRYSTAL DATA

#----------------------------------------------------------------------

data_VESTA_phase_1


_pd_phase_name                         'Ga1 N1'
_cell_length_a                         3.551(1)
_cell_length_b                         3.551(1)
_cell_length_c                         5.682(1)
_cell_angle_alpha                      90
_cell_angle_beta                       90
_cell_angle_gamma                      120
_symmetry_space_group_name_H-M         'P 63 m c'
_symmetry_Int_Tables_number            186

loop_
_symmetry_equiv_pos_as_xyz
   'x, y, z'
   '-y, x-y, z'
   '-x+y, -x, z'
   '-x, -y, z+1/2'
   'y, -x+y, z+1/2'
   'x-y, x, z+1/2'
   '-y, -x, z'
   '-x+y, y, z'
   'x, x-y, z'
   'y, x, z+1/2'
   'x-y, -y, z+1/2'
   '-x, -x+y, z+1/2'

loop_
   _atom_site_label
   _atom_site_occupancy
   _atom_site_fract_x
   _atom_site_fract_y
   _atom_site_fract_z
   _atom_site_adp_type
   _atom_site_B_iso_or_equiv
   _atom_site_type_symbol
   Ga1        1.0    -0.333333     -0.666667      0.000000     Biso  0.344778 Ga
   N1         1.0    -0.333333     -0.666667      0.3770(10)   Biso  0.431631 N

loop_
   _atom_site_aniso_label
   _atom_site_aniso_U_11
   _atom_site_aniso_U_22
   _atom_site_aniso_U_33
   _atom_site_aniso_U_12
   _atom_site_aniso_U_13
   _atom_site_aniso_U_23
   Ga1	 0.00520  0.00520  0.00270  0.00260  0.00000  0.00000
   N1	 0.00700  0.00700  0.00240  0.00350  0.00000  0.00000
